
  -OEChem-11031800573D

 10  0  0     0  0  0  0  0  0999 V2000
   -0.4768   -0.1529   -1.1279 C   0  0  0  0  0 15  0  0  0  0  0  0
    0.8418   -0.0030    0.9024 C   0  0  0  0  0 15  0  0  0  0  0  0
   -0.4422   -0.0707    0.3193 N   0  0  0  0  0 15  0  0  0  0  0  0
    0.0205   -1.0835   -1.4565 H   0  4  0  0  0  0  0  0  0  0  0  0
    0.0286    0.6956   -1.6469 H   0  4  0  0  0  0  0  0  0  0  0  0
   -1.5244   -0.1942   -1.4705 H   0  4  0  0  0  0  0  0  0  0  0  0
    1.4059   -0.9260    0.6718 H   0  4  0  0  0  0  0  0  0  0  0  0
    0.7575    0.0595    2.0015 H   0  4  0  0  0  0  0  0  0  0  0  0
    1.4731    0.8550    0.5619 H   0  4  0  0  0  0  0  0  0  0  0  0
   -1.0755    0.6626    0.6380 H   0  4  0  0  0  0  0  0  0  0  0  0
M  RAD  7   4   2   5   2   6   2   7   2   8   2   9   2  10   2
M  END
> <FINAL_ENERGY>
-134.5360941638504

$$$$
